47
10/31/2018 02:11, XYZ structure generated by mol3D Class, molSimplify
Fe 	-0.000092	0.000000	0.523984
N 	1.305126	1.567026	0.070624
N 	-1.305144	-1.567088	0.070360
C 	0.989600	2.903774	0.070042
C 	2.676990	1.497697	0.070182
N 	-1.566973	1.305151	0.070243
N 	1.566955	-1.305211	0.070993
C 	-0.989618	-2.903836	0.070080
C 	-2.677009	-1.497759	0.069399
C 	-0.311052	3.415667	0.070629
C 	2.192315	3.700012	0.052109
C 	3.415592	0.311023	0.071562
C 	3.243310	2.824269	0.051952
C 	-1.497702	2.677017	0.069598
C 	-2.903724	0.989567	0.069731
C 	1.497684	-2.677078	0.070513
C 	2.903705	-0.989628	0.070927
C 	0.311035	-3.415729	0.071216
C 	-2.192327	-3.700077	0.051808
C 	-3.415611	-0.311083	0.070350
C 	-3.243322	-2.824334	0.051141
H 	2.223916	4.790494	0.034756
H 	4.504690	0.410258	0.068322
H 	4.310248	3.051918	0.034548
C 	-2.824298	3.243274	0.051390
C 	-3.700004	2.192248	0.051673
C 	2.824287	-3.243337	0.052847
C 	3.699993	-2.192312	0.053338
H 	0.410299	-4.504822	0.067892
H 	-2.223922	-4.790562	0.034593
H 	-4.504708	-0.410319	0.066718
H 	-3.051981	4.310201	0.033850
H 	-4.790490	2.223812	0.034364
H 	3.051976	-4.310266	0.035522
H 	4.790485	-2.223877	0.036445
O 	-0.000384	0.000108	2.137744
C 	-0.450831	4.949302	0.065688
H 	0.380390	5.396876	0.647692
H 	-0.413752	5.320215	-0.979073
H 	-1.419717	5.234455	0.524888
C 	-5.369651	-4.528210	-0.051821
C 	-4.749220	-3.145647	0.026061
H 	-5.045624	-5.131062	0.822505
H 	-5.038996	-5.033312	-0.983074
H 	-6.476518	-4.446977	-0.051484
H 	-5.069485	-2.637271	0.959137
H 	-5.062845	-2.539094	-0.850022
