72
10/31/2018 12:14, XYZ structure generated by mol3D Class, molSimplify
Fe 	6.014725	22.138794	4.919575
N 	7.041570	20.286213	5.099886
C 	8.203705	20.076392	5.746970
C 	8.927618	18.894547	5.599691
C 	8.438275	17.912402	4.735999
C 	7.228964	18.128309	4.066700
C 	6.546238	19.326325	4.282232
C 	5.182526	19.646524	3.703380
N 	5.199909	21.099954	3.306026
C 	3.860788	21.731269	3.028646
C 	4.058318	23.233337	3.027281
C 	3.429615	24.108319	2.140235
C 	3.604918	25.485142	2.314779
C 	4.398072	25.946440	3.367313
C 	5.017191	25.012590	4.196696
N 	4.852193	23.687425	4.026303
C 	6.076633	21.251814	2.091703
H 	2.807374	23.722247	1.329414
H 	3.122006	26.191435	1.631642
H 	4.546910	27.015325	3.544584
H 	6.821834	17.373447	3.389997
H 	8.992951	16.981086	4.582095
H 	9.862620	18.757219	6.150133
H 	8.546169	20.888778	6.395238
H 	5.459149	21.567817	1.234588
H 	6.472117	20.258435	1.821008
O 	6.703419	22.959662	6.129607
C 	8.529455	23.482502	3.707059
C 	9.403124	23.841203	2.686116
C 	9.165592	23.351050	1.398338
C 	8.070252	22.515208	1.177909
C 	7.240613	22.190916	2.255920
N 	7.471499	22.673464	3.491677
H 	9.829313	23.617757	0.569486
H 	8.653803	23.839908	4.733640
H 	10.251546	24.496943	2.900602
H 	7.864758	22.115631	0.180193
C 	4.063588	19.288117	4.721190
C 	4.230204	19.917802	6.114763
C 	2.981681	21.870053	5.480824
C 	2.759036	21.337637	4.054704
C 	2.735087	19.805273	4.149769
H 	3.394488	19.562056	6.744579
H 	5.148335	19.555969	6.597553
H 	2.124209	21.545407	6.098085
H 	2.964090	22.968397	5.492517
O 	1.787372	19.111990	3.873503
C 	1.358212	21.816702	3.592495
O 	0.559145	22.315030	4.349974
O 	1.170595	21.556838	2.295668
C 	3.943769	17.753974	4.916460
O 	3.786527	17.247935	6.002670
O 	3.990502	17.119505	3.741986
C 	-0.168153	21.792250	1.794391
H 	-0.462121	22.840866	1.953475
H 	-0.120122	21.553144	0.724310
H 	-0.877914	21.126169	2.307908
C 	3.701825	15.700322	3.781371
H 	3.816601	15.355512	2.745801
H 	4.402839	15.180468	4.451962
H 	2.669709	15.543083	4.129434
N 	4.242683	21.395167	6.086724
C 	4.318064	21.897388	7.482382
H 	5.243782	21.543142	7.953334
H 	4.324790	22.994791	7.480245
H 	3.451499	21.538290	8.064565
H 	4.992615	19.030562	2.808089
O 	3.369017	21.268080	1.689386
H 	3.051004	20.968552	0.823331
N 	5.919439	25.430166	5.346469
H 	6.235568	26.382206	5.531303
H 	6.302470	24.801710	6.052605
