51
10/31/2018 09:28, XYZ structure generated by mol3D Class, molSimplify
Fe 	5.966544	22.366340	4.734995
N 	5.548433	20.711863	5.811164
C 	5.584439	20.621545	7.158859
C 	5.225160	19.451437	7.820541
C 	4.812307	18.349983	7.066285
C 	4.775150	18.446932	5.671292
C 	5.157785	19.642994	5.067317
C 	5.253380	19.832156	3.576975
N 	5.079381	21.266099	3.219437
C 	3.646434	21.667073	3.186554
C 	3.498637	23.129980	3.507946
C 	2.426935	23.910587	3.079396
C 	2.337226	25.236599	3.515642
C 	3.322241	25.748644	4.364153
C 	4.373470	24.921754	4.748188
N 	4.457051	23.641022	4.325700
C 	5.790576	21.620042	1.961107
H 	1.666434	23.486531	2.417130
H 	1.501206	25.865100	3.191561
H 	3.285245	26.779211	4.728130
H 	5.177252	25.262562	5.407265
H 	6.262150	19.523649	3.249514
H 	4.457840	17.597547	5.059234
H 	4.518010	17.417665	7.559367
H 	5.269653	19.413427	8.912567
H 	5.913890	21.518764	7.690947
H 	3.182217	21.407501	2.219141
H 	3.116342	21.084139	3.960543
H 	4.534018	19.195690	3.032692
O 	6.658088	23.223289	5.917466
C 	8.812103	22.658212	3.794291
C 	9.849031	22.542293	2.873771
C 	9.563191	22.062553	1.592898
C 	8.247698	21.717224	1.266139
C 	7.251397	21.865979	2.229055
N 	7.541919	22.325103	3.475400
H 	10.359518	21.954930	0.849103
H 	8.970807	23.024519	4.812761
H 	10.864302	22.824627	3.166093
H 	7.998662	21.341543	0.269344
C 	5.577100	20.542890	0.881398
H 	5.799811	20.972368	-0.116563
H 	6.254037	19.685875	1.075710
H 	4.523831	20.195284	0.908064
C 	4.959604	23.272098	-0.042706
C 	5.168704	22.920187	1.418429
H 	4.299654	22.515386	-0.516755
H 	5.937303	23.280377	-0.567803
H 	4.489087	24.273706	-0.127254
H 	4.193814	22.902427	1.948448
H 	5.834713	23.668976	1.897529
