22

Fe         0.95680        0.09486        0.00440
N          0.90217        1.69826       -1.21769
H          1.84025        1.85421       -1.64921
H          0.21554        1.54557       -1.98913
H          0.60294        2.56819       -0.72723
N          0.97280       -1.10635       -1.61625
H          0.43604       -1.98789       -1.46207
H          0.54788       -0.63244       -2.44298
H          1.95446       -1.36214       -1.86284
N         -1.05781        0.03220        0.01411
H         -1.39706       -0.72399       -0.62034
H         -1.43298       -0.17820        0.96493
H         -1.46808        0.93067       -0.32499
N          1.00559       -1.53669        1.19285
H          1.94003       -1.64028        1.64624
H          0.26644       -1.48854        1.92892
H          0.83288       -2.41298        0.65506
N          0.98953        1.35106        1.65952
Cl        -0.58520        1.76959        2.28198
Cl         1.77720        0.56716        3.00588
Cl         1.84376        2.85305        1.42051
O          2.87175        0.12729       -0.02621

