22

Fe         0.99487        0.09711        0.02208
N          0.96824       -1.12068        1.62870
H          1.86999       -1.02770        2.14724
H          0.20083       -0.87579        2.29276
H          0.85147       -2.12166        1.35833
N          1.00398        1.68440        1.26785
H          0.23847        2.36399        1.06689
H          0.85627        1.37108        2.25215
H          1.92539        2.17410        1.23242
N         -1.02736        0.12525        0.00928
H         -1.37725        1.10856       -0.00639
H         -1.43822       -0.37235       -0.80953
H         -1.41794       -0.33108        0.86209
N          1.05421        1.33455       -1.64615
Cl         0.16265        0.64592       -2.97911
Cl         0.31718        2.88854       -1.35339
Cl         2.63971        1.67137       -2.28893
N          1.00529       -1.52242       -1.18426
H          1.35916       -1.30415       -2.13935
H          1.63920       -2.25127       -0.78839
H          0.05709       -1.94753       -1.27934
O          2.90944        0.06437        0.06646
